<?xml version="1.0" encoding="UTF-8"?>

<!--
~~~~~~~~~~~~~~~~~~~~~~
 VNX Sample scenarios
~~~~~~~~~~~~~~~~~~~~~~

Name:        openstack_cloud_system

Description: This is an Openstack tutorial scenario designed to experiment with Openstack free and open-source 
             software platform for cloud-computing. It is made of four LXC containers: 
               - one controller
               - one compute node
	       - one storage node
             Openstack version used: Queens.
             The network configuration is based on the one named "Classic with Open vSwitch" described here:
                  http://docs.openstack.org/mitaka/networking-guide/scenario-classic-ovs.html

Author:      Juan Carlos Díaz Torres (jcdiaztorres96@gmail.com)

This file is part of the Virtual Networks over LinuX (VNX) Project distribution. 
(www: http://www.dit.upm.es/vnx - e-mail: vnx@dit.upm.es) 

Copyright (C) 2017 Departamento de Ingenieria de Sistemas Telematicos (DIT)
	      Universidad Politecnica de Madrid (UPM)
              SPAIN
-->

<vnx xmlns:xsi="http://www.w3.org/2001/XMLSchema-instance"
  xsi:noNamespaceSchemaLocation="/usr/share/xml/vnx/vnx-2.00.xsd">
  <global>
    <version>2.0</version>
    <scenario_name>openstack_tutorial-ocata</scenario_name>
    <ssh_key>/root/.ssh/id_rsa.pub</ssh_key>
    <automac offset="0"/>
    <vm_mgmt type="private" network="10.250.0.0" mask="24" offset="16">
       <host_mapping />
    </vm_mgmt>    
    <vm_defaults>
        <console id="0" display="no"/>
        <console id="1" display="yes"/>
    </vm_defaults>
  </global>

<!--   <net name="br-mgmt" mode="virtual_bridge"/>
  <net name="br-vxlan" mode="virtual_bridge"/>
  <net name="br-storage" mode="virtual_bridge"/>
  <net name="ExtNet"  mode="virtual_bridge"/>
  <net name="br-vlan" mode="virtual_bridge"/>
  <net name="virbr0"  mode="virtual_bridge"/> -->


  <vm name="infra1" type="lxc" arch="x86_64">
    <filesystem type="cow">/usr/share/vnx/filesystems/vnx_rootfs_lxc_ubuntu64-18.04-v025</filesystem>
    <mem>2G</mem> 
    <if id="1" net="unconnected">
    </if>
    <if id="2" net="unconnected">
    </if>
    <if id="3" net="unconnected">
    </if>
    <if id="4" net="unconnected">
    </if>


     <!-- Copy /etc/hosts file and add kernel modules-->
    <filetree seq="on_boot" root="/root/">conf/hosts</filetree> 
    <exec seq="on_boot" type="verbatim">
        cat /root/hosts >> /etc/hosts;
        rm /root/hosts;
	      echo 'bonding' >> /etc/modules
	      echo '8021q' >> /etc/modules	
    </exec> 
    <filetree seq="on_boot" root="/root/">net/infra1_net</filetree> 

  </vm>


  <vm name="compute1" type="lxc" arch="x86_64">
    <filesystem type="cow">/usr/share/vnx/filesystems/vnx_rootfs_lxc_ubuntu64-18.04-v025</filesystem>
    <mem>2G</mem> 
    <if id="1" net="unconnected">
    </if>
    <if id="2" net="unconnected">
    </if>
    <if id="3" net="unconnected">
    </if> 
    <if id="4" net="unconnected">
    </if>

    <!-- Copy /etc/hosts file -->
    <filetree seq="on_boot" root="/root/">conf/hosts</filetree> 
    <exec seq="on_boot" type="verbatim">
        cat /root/hosts >> /etc/hosts;
        rm /root/hosts;
	      echo 'bonding' >> /etc/modules;
	      echo '8021q' >> /etc/modules;
        <!-- # Create /dev/net/tun device 
        #mkdir -p /dev/net/
        #mknod -m 666 /dev/net/tun  c 10 200
        # Change br-mgmt and br-vxlan interfaces MTU
        ifconfig eth1 mtu 1450
        sed -i -e '/iface eth1 inet static/a \   mtu 1450' /etc/network/interfaces
        ifconfig eth2 mtu 1450
        sed -i -e '/iface eth2 inet static/a \   mtu 1450' /etc/network/interfaces
        ifconfig eth3 mtu 1450
        sed -i -e '/iface eth3 inet static/a \   mtu 1450' /etc/network/interfaces -->
    </exec>
    <filetree seq="on_boot" root="/root/">net/compute1_net</filetree> 

    </vm>

  <vm name="storage1" type="lxc" arch="x86_64">
    <filesystem type="cow">/usr/share/vnx/filesystems/vnx_rootfs_lxc_ubuntu64-18.04-v025</filesystem>
  <!--vm name="compute2" type="libvirt" subtype="kvm" os="linux" exec_mode="sdisk" arch="x86_64" vcpu="2"-->
    <!--filesystem type="cow">filesystems/rootfs_kvm_ubuntu64-ostack-compute</filesystem!-->
    <mem>1G</mem> 
    <if id="1" net="unconnected">
    </if>
    <if id="2" net="unconnected">
    </if>
<!--     <if id="3" net="br-vlan">
    </if> -->


    <!-- Copy /etc/hosts file -->
    <filetree seq="on_boot" root="/root/">conf/hosts</filetree>
    <exec seq="on_boot" type="verbatim">
        cat /root/hosts >> /etc/hosts;
        rm /root/hosts;
	echo 'bonding' >> /etc/modules
	echo '8021q' >> /etc/modules
        <!-- # Create /dev/net/tun device 
        #mkdir -p /dev/net/
        #mknod -m 666 /dev/net/tun  c 10 200
        # Change br-mgmt and br-vxlan interfaces MTU
        ifconfig eth1 mtu 1450
        sed -i -e '/iface eth1 inet static/a \   mtu 1450' /etc/network/interfaces
        ifconfig eth2 mtu 1450
        sed -i -e '/iface eth2 inet static/a \   mtu 1450' /etc/network/interfaces
        ifconfig eth3 mtu 1450
        sed -i -e '/iface eth3 inet static/a \   mtu 1450' /etc/network/interfaces -->
    </exec>
    <filetree seq="on_boot" root="/root/">net/storage1_net</filetree> 

    </vm>


  <host>
<!--     <hostif net="ExtNet">
       <ipv4>172.29.232.1/24</ipv4>
    </hostif>
    <hostif net="br-mgmt">
      <ipv4>172.29.236.1/24</ipv4>
    </hostif> -->
    <exec seq="step00" type="verbatim">
    	echo "--\n-- Waiting for all VMs to be ssh ready...\n--"
    </exec>
    <exec seq="step00" type="verbatim">
    	# Wait till ssh is accesible in all VMs
    	while ! $( nc -z controller 22 ); do sleep 1; done
    	while ! $( nc -z network 22 ); do sleep 1; done
    	while ! $( nc -z compute1 22 ); do sleep 1; done
    	while ! $( nc -z compute2 22 ); do sleep 1; done
    </exec>
    <exec seq="step00" type="verbatim">
    	echo "-- ...OK\n--"
    </exec>
  </host>

</vnx>
